147
Properties=species:S:1:pos:R:3:masses:R:1:forces:R:3:energies:R:1 energy=-415.7711181640625 label=68 n_visit=1 free_energy=-415.7709655761719 pbc="F F F"
Au      -4.30861861      -6.97495196       0.01265217       1.00000000       0.00049491      -0.00028117      -0.00005228      -2.87668443
Au      -5.37979966      -4.75942294      -1.50122424       1.00000000       0.00011505       0.00025158       0.00042761      -2.89258003
Au      -6.26383901      -2.44981015      -2.93427434       1.00000000       0.00010079       0.00016534       0.00019442      -2.89254189
Au      -5.37955883      -4.75406767       1.51863895       1.00000000       0.00014087       0.00016381      -0.00007806      -2.89252520
Au      -6.46602728      -2.47278080       0.00488935       1.00000000       0.00011868       0.00030095       0.00009461      -2.89562488
Au      -6.26316213      -2.43955319       2.94407130       1.00000000      -0.00019591       0.00016950      -0.00057391      -2.89249539
Au      -6.97428267      -0.01021262      -4.30990626       1.00000000       0.00032836      -0.00004309       0.00032228      -2.87660146
Au      -7.19780643      -0.00567204      -1.42882252       1.00000000       0.00023438       0.00019350       0.00028641      -2.89243054
Au      -6.26590800       2.43448989      -2.94249038       1.00000000       0.00017967      -0.00004447       0.00005250      -2.89245772
Au      -7.19766012      -0.00063377       1.42990958       1.00000000       0.00056088       0.00005926      -0.00003432      -2.89241695
Au      -6.46815063       2.46722472      -0.00374595       1.00000000       0.00010122      -0.00020028      -0.00021353      -2.89547944
Au      -6.97358775       0.00485640       4.31089444       1.00000000       0.00008424       0.00023100      -0.00019525      -2.87661624
Au      -6.26531970       2.44485576       2.93487143       1.00000000       0.00015213       0.00026850      -0.00025374      -2.89239311
Au      -5.38363203       4.74976490      -1.51746204       1.00000000       0.00015809       0.00004311      -0.00016299      -2.89254880
Au      -5.38320593       4.75523076       1.50126201       1.00000000      -0.00006954      -0.00012512       0.00010056      -2.89253950
Au      -4.31342501       6.97186715      -0.01241954       1.00000000      -0.00003328       0.00045568       0.00026379      -2.87664795
Au      -2.93732753      -6.26915030      -2.43140334       1.00000000      -0.00004712      -0.00025544       0.00019730      -2.89250565
Au      -1.50797327      -5.38946914      -4.74553206       1.00000000      -0.00010568       0.00004141       0.00000126      -2.89231706
Au      -2.93672323      -6.26064529       2.45385592       1.00000000      -0.00022811      -0.00009104      -0.00038276      -2.89252591
Au      -1.42789281      -7.19776642       0.01245432       1.00000000       0.00044579       0.00001735       0.00026836      -2.89243054
Au      -1.50704885      -5.37265987       4.76469402       1.00000000      -0.00041713      -0.00039655      -0.00010877      -2.89236975
Au      -4.75412237      -1.51977410      -5.37843789       1.00000000      -0.00037794      -0.00060496      -0.00018953      -2.89229751
Au      -2.44110535      -2.94981253      -6.25921369       1.00000000      -0.00018852      -0.00037919      -0.00007065      -2.89221168
Au      -3.99553135      -4.00441183      -3.98977535       1.00000000       0.00014855      -0.00016796      -0.00005773      -2.89538646
Au      -3.87354662      -2.39828686      -1.47527160       1.00000000      -0.00025442      -0.00016725      -0.00024345      -2.68942499
Au      -1.47881970      -3.87857798      -2.38748986       1.00000000       0.00014587      -0.00004344       0.00007312      -2.68933105
Au      -2.39383688      -1.48712940      -3.87130685       1.00000000       0.00010239      -0.00003552       0.00016213      -2.68923330
Au      -2.89336507      -4.68424982       0.00845816       1.00000000      -0.00002518      -0.00031717       0.00002586      -2.61775541
Au      -3.87328068      -2.39307584       1.48431845       1.00000000      -0.00020942      -0.00008669       0.00033636      -2.68933678
Au      -1.47838506      -3.87016846       2.40131626       1.00000000       0.00013544       0.00007719       0.00007092      -2.68931437
Au      -1.45858995      -2.36176012       0.00430113       1.00000000       0.00008515       0.00014762      -0.00014191      -2.87822080
Au      -3.99479761      -3.99044911       4.00443195       1.00000000       0.00001291      -0.00009226      -0.00015798      -2.89541984
Au      -4.75332314      -1.50068529       5.38459249       1.00000000      -0.00022597      -0.00073355       0.00000795      -2.89233208
Au      -2.44045918      -2.92793093       6.26984915       1.00000000       0.00028598       0.00002138       0.00022126      -2.89228153
Au      -2.39324557      -1.47340814       3.87690295       1.00000000      -0.00018595      -0.00030963      -0.00002224      -2.68927336
Au      -4.75538033       1.49791640      -5.38332551       1.00000000      -0.00019347       0.00042960      -0.00036694      -2.89235783
Au      -2.46914233      -0.01171753      -6.46652125       1.00000000      -0.00075867      -0.00026826      -0.00001290      -2.89522696
Au      -4.68387453      -0.00694731      -2.89399818       1.00000000       0.00021756       0.00019962      -0.00043298      -2.61776447
Au      -3.87545512       2.38997245      -1.48356222       1.00000000      -0.00009105       0.00026519      -0.00044961      -2.68936515
Au      -2.36147839      -0.00351343      -1.45899262       1.00000000       0.00012525       0.00005416      -0.00007857      -2.87824368
Au      -2.39496956       1.47207676      -3.87623569       1.00000000       0.00019242      -0.00014917      -0.00000683      -2.68920183
Au      -4.78919296      -0.00201852       0.00043375       1.00000000       0.00074612       0.00022212      -0.00012258      -2.68928385
Au      -3.87509240       2.39529818       1.47570368       1.00000000      -0.00025942       0.00009844       0.00017499      -2.68934417
Au      -2.36121497       0.00167232       1.45932734       1.00000000      -0.00007233       0.00011432       0.00013146      -2.87811184
Au      -1.46030153       2.36059711      -0.00419062       1.00000000       0.00017455       0.00010469       0.00014331      -2.87825823
Au      -4.68335683       0.00327365       2.89476754       1.00000000       0.00019049       0.00024446       0.00014996      -2.61777139
Au      -4.75466508       1.51720459       5.37855009       1.00000000       0.00001101       0.00020059       0.00035056      -2.89232635
Au      -2.46828788       0.01116724       6.46683222       1.00000000      -0.00098319      -0.00014016      -0.00003316      -2.89527631
Au      -2.39433928       1.48584929       3.87129768       1.00000000      -0.00015426      -0.00006266       0.00027278      -2.68924093
Au      -2.44322206       2.92681922      -6.26899860       1.00000000      -0.00033333       0.00010883      -0.00031887      -2.89222169
Au      -3.99879624       3.98765009      -4.00334992       1.00000000       0.00025528       0.00024854      -0.00004616      -2.89536405
Au      -2.94198841       6.25870355      -2.45363367       1.00000000       0.00034904      -0.00009653       0.00050520      -2.89237833
Au      -1.48166825       3.86933617      -2.40106805       1.00000000       0.00027946      -0.00016743      -0.00006988      -2.68928385
Au      -1.51204676       5.37201766      -4.76432585       1.00000000       0.00012082      -0.00001379      -0.00004334      -2.89234471
Au      -2.89672421       4.68208710      -0.00832504       1.00000000       0.00004893       0.00041406       0.00014477      -2.61768293
Au      -2.94155274       6.26733034       2.43129204       1.00000000       0.00024043       0.00009453      -0.00039522      -2.89238334
Au      -1.48121625       3.87778562       2.38722974       1.00000000       0.00022715       0.00001169       0.00026939      -2.68929362
Au      -1.43276796       7.19667331      -0.01291645       1.00000000       0.00032152      -0.00016497       0.00000648      -2.89237404
Au      -3.99812741       4.00207004       3.98955904       1.00000000       0.00017793      -0.00006509       0.00031827      -2.89529109
Au      -2.44248211       2.94912088       6.25884487       1.00000000      -0.00005818       0.00014316       0.00027826      -2.89221835
Au      -1.51139107       5.38882958       4.74516722       1.00000000      -0.00001415       0.00031822      -0.00006312      -2.89234567
Au       0.00140078      -4.32199407      -6.96636777       1.00000000       0.00005832       0.00001892       0.00013805      -2.87643170
Au       0.00128881      -6.47107493      -2.45892052       1.00000000       0.00015088       0.00007068      -0.00007989      -2.89546680
Au       1.51096728      -5.38885579      -4.74559896       1.00000000      -0.00015478      -0.00031401       0.00028842      -2.89229870
Au       0.00165298      -6.46243695       2.48128676       1.00000000      -0.00000620       0.00009300       0.00031887      -2.89542866
Au       1.43051011      -7.19733338       0.01237245       1.00000000       0.00044482       0.00021560       0.00003067      -2.89240813
Au       0.00234900      -4.29718986       6.98177583       1.00000000       0.00000959      -0.00023352      -0.00031015      -2.87647867
Au       1.51132718      -5.37217392       4.76430254       1.00000000       0.00005134      -0.00025723      -0.00007941      -2.89235449
Au       0.00131904      -1.44154104      -7.19443051       1.00000000      -0.00021807      -0.00019347      -0.00034801      -2.89210105
Au       2.44366844      -2.94921002      -6.25874951       1.00000000      -0.00011787       0.00023521      -0.00017982      -2.89223313
Au       0.00106239      -2.90251028      -4.67821461       1.00000000      -0.00024037      -0.00041618      -0.00029994      -2.61766219
Au       0.00045857      -1.46337221      -2.35856911       1.00000000      -0.00004729      -0.00035036       0.00032994      -2.87807035
Au       1.48066474      -3.87805236      -2.38744686       1.00000000       0.00017836      -0.00000136      -0.00029771      -2.68935609
Au       2.39504410      -1.48598660      -3.87111046       1.00000000      -0.00003927      -0.00002280      -0.00053981      -2.68929124
Au       0.00105046      -4.78893574       0.00833652       1.00000000       0.00027207       0.00043231       0.00018055      -2.68934321
Au       0.00077287      -1.45499816       2.36381936       1.00000000       0.00027426      -0.00050213      -0.00056872      -2.87802076
Au       1.48101468      -3.86957558       2.40095900       1.00000000      -0.00005226       0.00021655       0.00023918      -2.68935990
Au       1.45987617      -2.36101332       0.00409544       1.00000000       0.00033107       0.00025154       0.00014270      -2.87822986
Au       0.00167157      -2.88593360       4.68854934       1.00000000      -0.00009109      -0.00021864       0.00002542      -2.61769795
Au       0.00205161      -1.41608587       7.19952886       1.00000000      -0.00015087       0.00016221       0.00034993      -2.89214945
Au       2.44455733      -2.92724322       6.26879437       1.00000000      -0.00048436       0.00055785       0.00044846      -2.89228106
Au       2.39557767      -1.47230698       3.87612825       1.00000000      -0.00035951       0.00000568       0.00047325      -2.68934250
Au       0.00048106       1.41690570      -7.19935478       1.00000000      -0.00032481      -0.00003500      -0.00017842      -2.89210916
Au       2.47074830      -0.01063892      -6.46612861       1.00000000      -0.00001029       0.00014898       0.00000781      -2.89529061
Au       0.00044152      -0.00819666      -4.78828630       1.00000000      -0.00050976      -0.00013010      -0.00031851      -2.68917584
Au      -0.00056746       1.45522190      -2.36357078       1.00000000      -0.00013969       0.00012572       0.00011687      -2.87808442
Au       2.36137547      -0.00190610      -1.45918007       1.00000000       0.00008330       0.00025507       0.00008143      -2.87809563
Au       2.39394369       1.47383020      -3.87619664       1.00000000      -0.00000315       0.00005961      -0.00046230      -2.68925619
Au       0.00007579      -0.00005344       0.00000781       1.00000000      -0.00028003       0.00027158       0.00009812      -3.17181444
Au      -0.00018471       1.46357908       2.35842374       1.00000000       0.00002894       0.00026558      -0.00052674      -2.87811637
Au       2.36154053       0.00329915       1.45893912       1.00000000      -0.00026772       0.00012299      -0.00006924      -2.87826180
Au       1.45845579       2.36190849      -0.00433961       1.00000000      -0.00015337      -0.00042711       0.00022264      -2.87828398
Au       0.00105151       0.00878599       4.78835431       1.00000000      -0.00040647      -0.00013616       0.00022716      -2.68916559
Au       0.00130355       1.44262457       7.19421217       1.00000000      -0.00041659      -0.00037344       0.00037361      -2.89202905
Au       2.47121080       0.01234729       6.46596782       1.00000000       0.00053890       0.00022136      -0.00013694      -2.89538169
Au       2.39448768       1.48754699       3.87080143       1.00000000      -0.00020487       0.00031558       0.00039580      -2.68932915
Au      -0.00141531       4.29809529      -6.98108416       1.00000000      -0.00012936      -0.00013972      -0.00025839      -2.87641835
Au       2.44151035       2.92871561      -6.26891393       1.00000000       0.00009631      -0.00003732      -0.00024777      -2.89227414
Au      -0.00096757       2.88648388      -4.68809743       1.00000000      -0.00017536       0.00003636      -0.00043894      -2.61766887
Au      -0.00308080       6.46242349      -2.48159413       1.00000000      -0.00000369      -0.00010003      -0.00011328      -2.89553881
Au       1.47816366       3.87067621      -2.40106874       1.00000000       0.00007576      -0.00001385      -0.00033393      -2.68937731
Au       1.50726107       5.37363931      -4.76425544       1.00000000       0.00015509      -0.00036041       0.00010884      -2.89232254
Au      -0.00217893       4.78879528      -0.00866106       1.00000000       0.00021225      -0.00048920       0.00006778      -2.68924809
Au      -0.00283066       6.47112180       2.45821422       1.00000000       0.00018830       0.00013513       0.00009881      -2.89542484
Au       1.47856366       3.87918426       2.38698932       1.00000000      -0.00016539      -0.00029816       0.00028012      -2.68934202
Au       1.42586466       7.19802610      -0.01316130       1.00000000       0.00024939       0.00012351       0.00021351      -2.89243412
Au      -0.00032102       2.90316247       4.67776857       1.00000000      -0.00015948      -0.00003178       0.00049169      -2.61764646
Au      -0.00055614       4.32299418       6.96571080       1.00000000      -0.00017303      -0.00027568       0.00008973      -2.87640476
Au       2.44234513       2.95119105       6.25816380       1.00000000      -0.00020766      -0.00016454       0.00035571      -2.89233303
Au       1.50771574       5.39056779       4.74470522       1.00000000       0.00021193       0.00006221       0.00019328      -2.89231396
Au       2.93988573      -6.26827854      -2.43154316       1.00000000       0.00028912       0.00029909       0.00055321      -2.89239669
Au       2.93999987      -6.25972080       2.45323842       1.00000000       0.00056282       0.00023991      -0.00048134      -2.89245200
Au       4.31120917      -6.97340134       0.01208977       1.00000000       0.00036393       0.00062623      -0.00004339      -2.87673330
Au       4.75574894      -1.51787742      -5.37794335       1.00000000      -0.00021755       0.00022816       0.00010127      -2.89221668
Au       3.99790352      -4.00298828      -3.98910884       1.00000000      -0.00006722       0.00039242      -0.00029685      -2.89533162
Au       3.87478424      -2.39598279      -1.47545776       1.00000000       0.00025300      -0.00000260      -0.00001731      -2.68940806
Au       5.38225660      -4.75635273      -1.50071289       1.00000000      -0.00016260       0.00015063      -0.00026998      -2.89251018
Au       6.26512025      -2.44588618      -2.93419898       1.00000000      -0.00005388       0.00025507       0.00002426      -2.89249969
Au       2.89543730      -4.68302522       0.00810356       1.00000000       0.00044229      -0.00002593      -0.00000366      -2.61778164
Au       3.87496786      -2.39070014       1.48350293       1.00000000       0.00005890      -0.00015825       0.00014560      -2.68941331
Au       5.38230583      -4.75105099       1.51715861       1.00000000      -0.00016780       0.00013627       0.00032868      -2.89254713
Au       6.46773509      -2.46826921       0.00429419       1.00000000      -0.00032612       0.00002699      -0.00032425      -2.89536071
Au       3.99832383      -3.98890678       4.00291061       1.00000000      -0.00025710       0.00045836       0.00036051      -2.89536476
Au       4.75616898      -1.49836548       5.38321387       1.00000000      -0.00008188      -0.00010070      -0.00051419      -2.89233136
Au       6.26510760      -2.43551461       2.94280252       1.00000000       0.00012307       0.00027800      -0.00032961      -2.89254761
Au       4.75455776       1.50173679      -5.38312453       1.00000000       0.00012508      -0.00002903      -0.00022131      -2.89221692
Au       6.97403305      -0.00534716      -4.31009567       1.00000000      -0.00005327      -0.00014590       0.00025414      -2.87662268
Au       4.68366651      -0.00369726      -2.89434116       1.00000000      -0.00028286       0.00013285       0.00015243      -2.61779332
Au       3.87330397       2.39313087      -1.48387421       1.00000000       0.00019973      -0.00010054      -0.00026154      -2.68936944
Au       7.19766475      -0.00034950      -1.42944594       1.00000000      -0.00005807      -0.00020086       0.00031687      -2.89238620
Au       6.26374089       2.43933010      -2.94255949       1.00000000      -0.00035804      -0.00020466      -0.00047821      -2.89247394
Au       4.78908421       0.00149657      -0.00020180       1.00000000      -0.00011912      -0.00001489      -0.00014544      -2.68934441
Au       3.87344803       2.39837710       1.47498239       1.00000000       0.00003577       0.00016151       0.00019537      -2.68933392
Au       7.19784041       0.00439559       1.42892620       1.00000000      -0.00039922       0.00040954      -0.00030534      -2.89243746
Au       6.46638114       2.47215525      -0.00456142       1.00000000      -0.00048119       0.00001079      -0.00015907      -2.89541650
Au       4.68388553       0.00664841       2.89391325       1.00000000       0.00027936       0.00012406       0.00023653      -2.61773515
Au       4.75523726       1.52114680       5.37747239       1.00000000      -0.00027361      -0.00031516      -0.00014579      -2.89225578
Au       6.97434164       0.01012376       4.30946927       1.00000000       0.00017638      -0.00020953      -0.00004097      -2.87667513
Au       6.26394118       2.44991821       2.93340932       1.00000000      -0.00030747      -0.00039331       0.00041358      -2.89248610
Au       3.99523985       3.99111640      -4.00322421       1.00000000      -0.00008606       0.00010597      -0.00022163      -2.89532065
Au       2.93614136       6.26144480      -2.45371011       1.00000000      -0.00006405       0.00008146       0.00039093      -2.89242768
Au       5.37923501       4.75438392      -1.51763089       1.00000000       0.00010042      -0.00028474      -0.00037722      -2.89250207
Au       2.89250874       4.68492173      -0.00854983       1.00000000       0.00024126      -0.00029372      -0.00004160      -2.61777329
Au       2.93630150       6.27029335       2.43087353       1.00000000      -0.00003478      -0.00002453      -0.00048715      -2.89239073
Au       5.37933520       4.75977174       1.50003564       1.00000000       0.00011776      -0.00014484       0.00052359      -2.89247274
Au       4.30690339       6.97621368      -0.01272852       1.00000000       0.00018365      -0.00058583      -0.00000884      -2.87659931
Au       3.99562613       4.00557149       3.98856422       1.00000000       0.00005401      -0.00014009       0.00010438      -2.89535999
