147
Properties=species:S:1:pos:R:3:momenta:R:3:forces:R:3:energies:R:1 barriertype=s energy=-412.0444030761719 free_energy=-412.0444030761719 pbc="F F F"
Au      -5.15768843      -6.39599730      -0.00061423      38.56629766     -17.53624864       0.02415635      -0.00054788      -0.00189977       0.00019212      -2.85068154
Au      -5.78945012      -4.40177355      -1.78892928       7.70810205      -8.67544588       9.43070647      -0.00109882       0.00090256      -0.00141490      -2.84675908
Au      -6.20216127      -2.22406075      -3.56808064      -1.21297328     -11.18717870       9.99913324      -0.00092409      -0.00037809       0.00090301      -2.85571170
Au      -5.79185858      -4.40272626       1.78959359       7.72915915      -8.77546984      -9.42413675      -0.00091942       0.00056460       0.00115598      -2.84675670
Au      -6.37951000      -2.20473027      -0.00026469      -1.08868972       1.82608322       0.04512466      -0.00012393       0.00139650      -0.00012544      -2.88391399
Au      -6.20336553      -2.22744797       3.56654993      -1.26472357     -11.23332996     -10.08202147      -0.00086927       0.00032176      -0.00046192      -2.85571265
Au      -6.41668076      -0.00296006      -5.16853208     -17.55075791      -0.01249714      38.30585199      -0.00166215       0.00023555       0.00031702      -2.85074687
Au      -6.67276222      -0.00068771      -1.82771530      -7.30994328      -0.00506477     -14.07889296      -0.00094574      -0.00003791      -0.00045278      -2.83241510
Au      -6.21092970       2.23515049      -3.56800012      -1.16953801      11.13595456      10.01406360      -0.00086086      -0.00012427       0.00061951      -2.85573244
Au      -6.67216358      -0.00075314       1.82574901      -7.33551636      -0.01770883      14.29730315      -0.00098536       0.00005808       0.00067332      -2.83245158
Au      -6.37466784       2.20671025      -0.00021554      -1.11165804      -1.86669344       0.06901287      -0.00023040      -0.00147312       0.00002472      -2.88396144
Au      -6.42874095      -0.00291990       5.17749253     -17.81078433      -0.03856559     -38.59230987      -0.00038220       0.00005499      -0.00108943      -2.85077596
Au      -6.21211522       2.23840587       3.56644571      -1.19161244      11.29655607     -10.07117503      -0.00064824      -0.00039928      -0.00060589      -2.85573936
Au      -5.79656464       4.38149442      -1.80357240       7.71250684       8.64466077       9.49824595      -0.00089418       0.00004443      -0.00104424      -2.84680676
Au      -5.79895972       4.38253960       1.80421818       7.70865924       8.72502375      -9.44274646      -0.00065834      -0.00038417       0.00106022      -2.84681487
Au      -5.21377896       6.47411245      -0.00055269      38.66553619      17.53954970      -0.04907255       0.00094162       0.00028091      -0.00005677      -2.85073519
Au      -3.57267012      -6.20593954      -2.22557897      10.01946780      -1.14703236     -11.23981790       0.00088334      -0.00097695      -0.00043419      -2.85568786
Au      -1.79904001      -5.78951027      -4.38602755       9.45682777       7.73011498      -8.59637029      -0.00163481      -0.00103816       0.00091140      -2.84677172
Au      -3.57272583      -6.20759487       2.22754895      10.06643327      -1.17760464      11.24829636       0.00065797      -0.00085953       0.00000912      -2.85570717
Au      -1.83010317      -6.67816671      -0.00015019     -14.38888601      -7.20455225       0.01412842      -0.00002462      -0.00105792      -0.00002258      -2.83243442
Au      -1.80184826      -5.79105690       4.38217029       9.49498872       7.77283374       8.61831848      -0.00113792      -0.00097704      -0.00016670      -2.84673858
Au      -4.40422751      -1.79449751      -5.79558597      -8.54695289       9.52150827       7.67897448       0.00062758      -0.00146975      -0.00106465      -2.84685922
Au      -2.23631367      -3.56665978      -6.20604215     -11.21049969      10.09314328      -1.14220886      -0.00046848       0.00096453      -0.00078608      -2.85571957
Au      -4.15533561      -4.15921453      -4.15741698      -1.29267305      -1.20171234      -1.20099788      -0.00039471      -0.00052498      -0.00057591      -2.72897315
Au      -4.08589334      -2.21477722      -1.77275506       2.20039016      -1.76250871       3.92905231      -0.00019508      -0.00006438       0.00093839      -2.68572044
Au      -1.73874856      -4.07265744      -2.26874935       3.81857133       2.41343259      -1.78210829       0.00087703       0.00006101       0.00023416      -2.68570280
Au      -2.19268121      -1.77769364      -4.06093519      -1.74731216       3.84404480       2.35424848       0.00083660       0.00031881      -0.00002741      -2.68567944
Au      -3.68418248      -4.58797716      -0.00388716       8.04427604       0.86081392      -0.02017147       0.00263321       0.00103863       0.00052843      -2.62488127
Au      -4.08349639      -2.20380724       1.77632548       2.32565601      -1.72716752      -3.87116709       0.00034087      -0.00073282      -0.00134149      -2.68570256
Au      -1.73188371      -4.06997872       2.27705084       3.87405273       2.49887676       1.79389324       0.00010363       0.00048986      -0.00149175      -2.68567371
Au      -1.59581568      -1.98417022      -0.00590527       7.57855481      -2.59500245       0.00813540      -0.00158290      -0.00261047       0.00123723      -2.92588139
Au      -4.15480725      -4.15945674       4.15780559      -1.25508299      -1.25411268       1.24951750      -0.00051916      -0.00060505       0.00042987      -2.72895503
Au      -4.40316402      -1.79759307       5.79904542      -8.61676996       9.54217827      -7.64800111       0.00019790      -0.00107688       0.00086950      -2.84681392
Au      -2.24142751      -3.56557856       6.20834602     -11.31572344      10.08136677       1.17788711       0.00027956       0.00055739       0.00076516      -2.85573053
Au      -2.18698171      -1.77695794       4.05292350      -1.68350938       3.86738600      -2.52815969       0.00080651       0.00054934      -0.00001700      -2.68565774
Au      -4.41031737       1.79793716      -5.80880155      -8.63888908      -9.52828322       7.66186693       0.00023908       0.00112517      -0.00087100      -2.84686065
Au      -2.20309803      -0.00111553      -6.38366770       1.97368800       0.02252751      -1.04358185       0.00141171      -0.00006849      -0.00018563      -2.88392472
Au      -4.55740283      -0.02136916      -3.63949728       0.60970034      -0.01088562       8.10149999      -0.00002127       0.00050803       0.00225095      -2.62480664
Au      -4.07069374       2.26007431      -1.73483490       2.35025309       1.70572212       3.95212458       0.00043420      -0.00143183       0.00034044      -2.68566227
Au      -2.05177154      -0.03183706      -1.61846770      -2.54330801       0.06325806       7.67144071      -0.00188752       0.00153338      -0.00110232      -2.92577720
Au      -2.13274512       1.79765323      -4.04723827      -1.73992689      -3.90485079       2.53778313       0.00026581      -0.00086593       0.00052402      -2.68566251
Au      -4.53801746      -0.00217076       0.00431631     -12.81455833       0.02967541       0.07428547       0.00175209       0.00022303      -0.00046632      -2.70735383
Au      -4.06819303       2.24906430       1.73844676       2.36715130       1.72055007      -3.90888578      -0.00045594      -0.00009194      -0.00066373      -2.68565774
Au      -2.08393983      -0.03161892       1.63585716      -2.71300405      -0.05145171      -7.55546708       0.00112873       0.00026488      -0.00049758      -2.92566824
Au      -1.72502601       2.16456216      -0.00572646       7.61746004       2.56793938      -0.10341335       0.00072505      -0.00089453      -0.00008895      -2.92568445
Au      -4.53322025      -0.02135296       3.61933455       0.84120604      -0.02470599      -8.24968888      -0.00258048       0.00031162      -0.00028907      -2.62486219
Au      -4.40931272       1.80096655       5.81225727      -8.63541731      -9.56550649      -7.68589613       0.00044167       0.00107227       0.00052240      -2.84684849
Au      -2.20283404      -0.00112440       6.38409983       1.98887253       0.01648533       1.04914045       0.00121565      -0.00017963       0.00006466      -2.88382745
Au      -2.12697171       1.79689603       4.03905975      -1.75275800      -3.94551003      -2.46547849      -0.00054652      -0.00090927       0.00075675      -2.68562293
Au      -2.25438570       3.55802916      -6.21284635     -11.21594471     -10.05368744      -1.14882090       0.00032706      -0.00047845      -0.00088162      -2.85571456
Au      -4.15637371       4.16143761      -4.15473865      -1.20287372       1.19178469      -1.23460111      -0.00051600       0.00058187      -0.00035063      -2.72898459
Au      -3.56593993       6.21859453      -2.25439037      10.04018289       1.21450172     -11.23972980       0.00035821       0.00070039       0.00032790      -2.85570097
Au      -1.73363581       4.02824369      -2.23770892       3.87727289      -2.44191406      -1.78623629       0.00081250      -0.00012033       0.00007946      -2.68566632
Au      -1.81463992       5.80766266      -4.38116264       9.48724130      -7.73465112      -8.74387154      -0.00094876       0.00088666       0.00031665      -2.84676313
Au      -3.57576386       4.40949090      -0.00389808       8.13737216      -0.81926694      -0.04191070       0.00043639       0.00266466       0.00031666      -2.62489557
Au      -3.56603230       6.22025894       2.25634620      10.06824071       1.15747336      11.28888566       0.00065982       0.00047226      -0.00037849      -2.85570979
Au      -1.72674090       4.02546353       2.24599357       3.93133755      -2.40476476       1.81761312       0.00022068       0.00092888      -0.00048606      -2.68562031
Au      -1.82150451       6.68692572      -0.00015346     -14.27988980       7.35114609       0.01044110      -0.00038279       0.00095530       0.00008056      -2.83237767
Au      -4.15591167       4.16163744       4.15511094      -1.24105250       1.19521617       1.23493302      -0.00040965       0.00064062       0.00050630      -2.72898746
Au      -2.25943796       3.55701559       6.21516543     -11.34182631     -10.06081122       1.14353659       0.00043780      -0.00054390       0.00061397      -2.85568714
Au      -1.81739880       5.80916989       4.37740222       9.49097283      -7.77801419       8.67816267      -0.00095455       0.00063248      -0.00033597      -2.84673929
Au      -0.00583837      -5.19968117      -6.45540338      -0.00925899      38.50264337     -17.59232366       0.00007641      -0.00044739      -0.00237589      -2.85068512
Au      -0.00128611      -6.37876379      -2.20491929      -0.07467381      -1.03156434       1.83455550      -0.00000544      -0.00014695       0.00139633      -2.88388729
Au       1.80552016      -5.81359319      -4.39764294      -9.44523307       7.65949654      -8.61447520       0.00145073      -0.00116279       0.00041407      -2.84681845
Au      -0.00131646      -6.37797301       2.20523072      -0.07199234      -1.02938839      -1.82946029       0.00014149      -0.00025403      -0.00130796      -2.88387322
Au       1.81485512      -6.67370243      -0.00015620      14.06421788      -7.23817203      -0.02094456       0.00037753      -0.00106927       0.00002566      -2.83239031
Au      -0.00582883      -5.21071737       6.46959929      -0.03463229      38.64269560      17.84457690      -0.00011156       0.00061191       0.00080556      -2.85073900
Au       1.80829455      -5.81514573       4.39384789      -9.41713894       7.74313995       8.56738321       0.00135958      -0.00098255      -0.00059250      -2.84678817
Au      -0.00189267      -1.82361216      -6.68072598       0.04472627     -14.24527511      -7.22018282       0.00000574      -0.00019507      -0.00107794      -2.83240604
Au       2.25597175      -3.56657097      -6.22308377      11.27791904       9.97022296      -1.25108527       0.00009547       0.00053959      -0.00108597      -2.85570145
Au      -0.03977915      -3.59344650      -4.45969085      -0.06545235       8.13247143       0.92199170       0.00019219       0.00339433       0.00176181      -2.62483168
Au      -0.05883950      -1.68908584      -2.13218396       0.09668780       7.50717074      -2.69117778       0.00141623      -0.00206939      -0.00330319      -2.92592955
Au       1.77637122      -4.04674348      -2.15859231      -3.82454662       2.49235054      -1.60486511      -0.00098195       0.00136450       0.00069062      -2.68569684
Au       2.27686699      -1.70676201      -4.03332258       1.78077726       3.89650732       2.47688978      -0.00175312       0.00024117       0.00113793      -2.68566751
Au       0.04528431      -4.52827016      -0.00035004      -0.00225798     -12.75790888      -0.06669305      -0.00005271       0.00225043      -0.00018965      -2.70727277
Au      -0.05857174      -1.71299087       2.16521103      -0.09076681       7.39630513       2.91377144      -0.00081703       0.00020522       0.00054511      -2.92571974
Au       1.76941714      -4.04395281       2.16683100      -3.83351922       2.34754766       1.69342464       0.00013954      -0.00045919      -0.00080581      -2.68568087
Au       1.77131859      -2.30814536      -0.00564930      -7.33166280      -2.95418833      -0.20254200       0.00136431      -0.00173325      -0.00098281      -2.92585588
Au      -0.03982940      -3.57374434       4.42689905      -0.05288264       8.31129119      -1.15174636      -0.00004137       0.00119923       0.00191466      -2.62489629
Au      -0.00189015      -1.82183655       6.68210868       0.01088489     -14.43100939       7.26469427      -0.00007090      -0.00045053       0.00093344      -2.83242178
Au       2.26111036      -3.56554793       6.22543464      11.36065864      10.02121950       1.20725581      -0.00031862       0.00067752       0.00072105      -2.85573578
Au       2.27109578      -1.70597862       4.02519471       1.77235273       3.85512941      -2.40235174      -0.00021790       0.00045881       0.00072489      -2.68566227
Au      -0.00183808       1.81412739      -6.67833132       0.04800429      14.38162175      -7.20823971       0.00000583       0.00027167      -0.00106348      -2.83241606
Au       2.20583917      -0.00118109      -6.37546128      -1.88733241       0.06798599      -1.04215343      -0.00145186       0.00015464      -0.00028679      -2.88382173
Au      -0.00423530       0.02399614      -4.51960062      -0.01270925       0.02627404     -12.75138053       0.00001361      -0.00050282       0.00219229      -2.70728445
Au      -0.05881578       1.78361193      -2.30783150      -0.14933917      -7.59162826      -2.61716653      -0.00099355       0.00005947       0.00008903      -2.92578983
Au       2.38778815      -0.03177432      -1.86042068       2.95947109      -0.17527886       7.37927096       0.00060715      -0.00097067      -0.00015740      -2.92575932
Au       2.21701336       1.72667074      -4.01969340       1.86672013      -3.86923700       2.34709328       0.00015745      -0.00042077      -0.00079329      -2.68567419
Au      -0.32374289      -0.17484317      -0.03181532      -0.22562679      -0.07362130      -0.20840134       0.00105368       0.00282165       0.00248817      -3.24068689
Au      -0.05881865       1.80734181       2.34072225       0.05416662      -7.49086002       2.76433995       0.00093093      -0.00142943      -0.00250786      -2.92567396
Au       2.41960601      -0.03180297       1.87773556       3.01843944       0.08589605      -7.38916579      -0.00085434       0.00180921      -0.00044893      -2.92577887
Au       1.90203368       2.49063189      -0.00575737      -7.36407914       2.89431872       0.10030284      -0.00100018      -0.00144835       0.00195857      -2.92566586
Au      -0.00422513       0.02400139       4.51546684      -0.02771390      -0.03746120      12.76453876      -0.00030473      -0.00046724      -0.00185980      -2.70716572
Au      -0.00178360       1.81231317       6.67975584       0.00167231      14.45345477       7.19965289       0.00056290       0.00078860       0.00108570      -2.83263087
Au       2.20561728      -0.00118468       6.37589404      -1.92157819      -0.03123184       1.05237123      -0.00132414      -0.00021766       0.00029149      -2.88396311
Au       2.21122736       1.72589845       4.01168321       1.76648416      -3.89573658      -2.44510578      -0.00037467      -0.00142527      -0.00271319      -2.68555093
Au      -0.00587936       5.24519910      -6.52150455       0.00210263     -38.61818637     -17.62587240      -0.00010510      -0.00051422      -0.00089592      -2.85071492
Au       2.27414958       3.55796229      -6.22996544      11.29977421     -10.05873508      -1.17868367      -0.00011827      -0.00071249      -0.00061394      -2.85569739
Au      -0.03997470       3.48274120      -4.32930599      -0.05948691      -8.12043305       0.87231655      -0.00002689      -0.00099004      -0.00124849      -2.62491035
Au      -0.00128164       6.38173170      -2.20322408      -0.04831773       1.07222296       1.81023794       0.00036651       0.00012697       0.00144138      -2.88393569
Au       1.77164170       4.00177096      -2.12648844      -3.87693336      -2.28987407      -1.66255269      -0.00058970       0.00100106      -0.00058641      -2.68568015
Au       1.82116917       5.83193631      -4.39296747      -9.41327238      -7.69380461      -8.64770627       0.00107673       0.00066783       0.00070600      -2.84676623
Au       0.04565316       4.50684494      -0.00042409      -0.01992405      12.73900404       0.04126865      -0.00018822      -0.00169768      -0.00012307      -2.70724440
Au      -0.00128691       6.38092514       2.20355412      -0.05986170       1.06937007      -1.82562485       0.00042993       0.00005522      -0.00111522      -2.88401866
Au       1.76469237       3.99919215       2.13486465      -3.90453223      -2.46042445       1.61882068       0.00353031      -0.00015922       0.00118972      -2.68611789
Au       1.80589896       6.68266176      -0.00013686      13.97559614       7.35092484       0.00308375       0.00042794       0.00059250      -0.00022582      -2.83234000
Au      -0.04001606       3.46312958       4.29668193      -0.00445755      -8.22914069      -1.06794223      -0.00005749       0.00030568       0.00309718      -2.62511468
Au      -0.00587438       5.25603015       6.53549151       0.02624562     -38.76424312      17.76413089      -0.00035382      -0.00130461       0.00001493      -2.85069633
Au       2.27927329       3.55699279       6.23226203      11.30885952     -10.04305019       1.22152328      -0.01011206      -0.00088010       0.01141982      -2.85554171
Au       1.82396056       5.83341549       4.38913559      -9.45320826      -7.69896009       8.69638143       0.00148204       0.00209741      -0.00198608      -2.84679508
Au       3.55719691      -6.21782175      -2.25958156     -10.02597265      -1.27761625     -11.20734264      -0.00058561      -0.00107217      -0.00031380      -2.85570955
Au       3.55729476      -6.21952848       2.26152893     -10.09092584      -1.22675021      11.22337385      -0.00103101      -0.00058503       0.00031097      -2.85574245
Au       5.24106853      -6.51718070      -0.00057987     -38.34949097     -17.70361339       0.03104643       0.00016854      -0.00184115      -0.00004101      -2.85071349
Au       4.36577579      -1.82209019      -5.81053162       8.66899348       9.42987432       7.66277973      -0.00000146      -0.00107916      -0.00122609      -2.84668922
Au       4.15933800      -4.15383442      -4.16040210       1.27934152      -1.27997969      -1.25563878       0.00047629      -0.00065871      -0.00035977      -2.72897387
Au       4.00394975      -2.15561718      -1.76478163      -2.56158181      -1.67414502       3.88204163      -0.00098454       0.00038722       0.00122435      -2.68561339
Au       5.82334212      -4.39244133      -1.81881638      -7.61796009      -8.64629115       9.55717349       0.00108126       0.00032016      -0.00125390      -2.84679914
Au       6.22567146      -2.27695639      -3.55709051       1.22107974     -11.34206600      10.02951546       0.00117575       0.00039221       0.00029726      -2.85569644
Au       3.48056571      -4.34596096      -0.00391154      -8.27735544       1.00198846      -0.00416338      -0.00248158       0.00091877       0.00035584      -2.62482619
Au       4.00130409      -2.14464306       1.76847760      -2.35577597      -1.75506700      -3.84746996       0.00059409      -0.00099811      -0.00125986      -2.68566036
Au       5.82574579      -4.39357498       1.81943024      -7.68343949      -8.60581447      -9.52515809       0.00068664       0.00091527       0.00136829      -2.84680247
Au       6.38437008      -2.20194162      -0.00019734       1.03325979       2.01098616       0.01148245       0.00003644       0.00129284       0.00029909      -2.88382173
Au       4.15878691      -4.15416712       4.16084552       1.25570943      -1.31161678       1.27775104       0.00070623      -0.00054731       0.00024918      -2.72898245
Au       4.36486928      -1.82510683       5.81387917       8.68785475       9.48124409      -7.67531372      -0.00065508      -0.00111958       0.00076788      -2.84665632
Au       6.22685333      -2.28030175       3.55564288       1.19414726     -11.36180365     -10.04098463       0.00080616       0.00021078      -0.00058271      -2.85570812
Au       4.37183765       1.82554282      -5.82377962       8.62071812      -9.43628314       7.76252195      -0.00069663       0.00125393      -0.00069560      -2.84668469
Au       6.56121527      -0.00299026      -5.27766923      17.88538991       0.02852351      38.65179014       0.00081100      -0.00006703       0.00019858      -2.85066628
Au       4.22410333      -0.02157633      -3.43857908      -1.25932582       0.01669069       8.22905756       0.00165711       0.00042137       0.00122059      -2.62489271
Au       3.98823601       2.20154657      -1.72616757      -2.36459221       1.74168129       3.84820931       0.00101467      -0.00059703       0.00005834      -2.68558717
Au       6.68759777      -0.00074805      -1.81026914       7.16546539       0.00977721     -14.53970845       0.00091411       0.00024576      -0.00007799      -2.83249378
Au       6.23455492       2.28807248      -3.55714058       1.16999418      11.36798941      10.11854277       0.00054190      -0.00026061       0.00093988      -2.85567069
Au       4.49678685      -0.00211583       0.00445836      12.75703447      -0.03112379       0.00707447      -0.00201959      -0.00057671      -0.00056740      -2.70706058
Au       3.98577124       2.19063935       1.72992678      -2.53941831       1.69222114      -3.89470007      -0.00014286       0.00377117       0.00316353      -2.68618393
Au       6.68710536      -0.00076335       1.80872788       7.15682119       0.01352124      14.50071073       0.00068717       0.00014124       0.00028252      -2.83248115
Au       6.37946770       2.20388418      -0.00011077       1.01838519      -1.96024918      -0.02861118      -0.00006753      -0.00135758       0.00027678      -2.88385844
Au       4.20014873      -0.02159011       3.41852258      -1.15942486       0.01571427      -8.28426241       0.00221941       0.00077311      -0.00093090      -2.62515712
Au       4.37087261       1.82852335       5.82708731       8.75582567      -9.50574719      -7.69748329       0.00340400      -0.00693263       0.00631381      -2.84651566
Au       6.57306577      -0.00297048       5.28603702      17.89647749       0.04660261     -38.73414732       0.00017549       0.00007233      -0.00041614      -2.85062742
Au       6.23570816       2.29133521       3.55558911       1.20822370      11.36365380     -10.07919884      -0.00299064       0.00436150      -0.00140846      -2.85563374
Au       4.16047748       4.15601292      -4.15762488       1.26013387       1.32772427      -1.18506688       0.00049205       0.00046421      -0.00071328      -2.72891831
Au       3.55030726       6.23066472      -2.28890612     -10.04078147       1.21349901     -11.20798056      -0.00067232       0.00046978       0.00028552      -2.85561395
Au       5.83059541       4.37192785      -1.83363402      -7.69687477       8.63970205       9.46603071       0.00066209      -0.00031248      -0.00114938      -2.84683561
Au       3.36964648       4.16364608      -0.00395441      -8.24288837      -0.85431340       0.00377005       0.00035933       0.00278911       0.00234496      -2.62524700
Au       3.55034119       6.23229908       2.29092685     -10.01833931       1.21480188      11.21162577       0.00276071      -0.01149653       0.00931220      -2.85579848
Au       5.83300668       4.37304116       1.83429739      -7.66333453       8.72058492      -9.50892153      -0.01046914      -0.00282237       0.01471508      -2.84697747
Au       5.29826995       6.59684043      -0.00059992     -38.20809102      17.69530021      -0.00421276      -0.00154801       0.00020520       0.00056897      -2.85069513
Au       4.15998364       4.15630904       4.15804801       1.33974577       1.26302862       1.20305007       0.01423692       0.01426895      -0.04204863      -2.72824073
